Version 4
SHEET 1 3500 732
WIRE 1024 -48 992 -48
WIRE 528 -32 384 -32
WIRE 528 0 528 -32
WIRE 1024 16 928 16
WIRE 384 64 384 -32
WIRE 384 64 320 64
WIRE 1792 80 1632 80
WIRE 2224 80 1952 80
WIRE 96 128 -288 128
WIRE 1792 128 1744 128
WIRE -288 144 -288 128
WIRE 96 192 -112 192
WIRE 576 192 320 192
WIRE 2224 192 2224 144
WIRE 1568 208 1248 208
WIRE 1632 208 1632 80
WIRE 1632 208 1568 208
WIRE 576 224 576 192
WIRE 1568 256 1568 208
WIRE 1616 256 1568 256
WIRE 1744 256 1744 128
WIRE 1744 256 1680 256
WIRE 1360 272 1248 272
WIRE 1616 272 1360 272
WIRE 992 480 992 -48
WIRE 1360 480 1360 272
WIRE 1360 480 992 480
WIRE -112 496 -112 192
WIRE 928 496 928 16
WIRE 928 496 -112 496
FLAG 96 64 0
FLAG 528 80 0
FLAG 576 304 0
FLAG -288 224 0
FLAG 2224 192 0
SYMBOL Misc\\NE555 208 160 R0
SYMATTR InstName U1
SYMBOL voltage 528 -16 R0
WINDOW 123 0 0 Left 0
WINDOW 39 0 0 Left 0
WINDOW 3 -839 -245 Left 2
SYMATTR Value PWL(0 0 4m 10 7m 18 10m 12 12m 20 13m 2 15m 14 16m 12 17m 15. 18m 9 20m 2 22m 18 24m 8 25m 30 27m 2 29m 24 30m 12 32m 17 35m 19 36m 11 37m 21 38m 6 40m 45 41m 11 42m 21 43m 6 45m 19 47m 11 48m 22 49m 11 52m 22 54m 2 55m 15.5 59m 10 60m 18 61m 6 63m 17 65m 12 69m 20 71m 9 72m 18 73m 4)
SYMATTR InstName V1
SYMBOL voltage 576 208 R0
WINDOW 123 0 0 Left 0
WINDOW 39 0 0 Left 0
SYMATTR InstName V2
SYMATTR Value 15
SYMBOL voltage -288 128 R0
WINDOW 123 0 0 Left 0
WINDOW 39 0 0 Left 0
SYMATTR InstName V3
SYMATTR Value 5
SYMBOL AutoGenerated\\CD4017B 1136 -112 R0
SYMATTR InstName U2
SYMATTR SpiceLine VDD=5  SPEED=1  TRIPDT=5e-9
SYMBOL Digital\\dflop 1872 32 R0
SYMATTR InstName A1
SYMBOL Digital\\or 1648 208 R0
SYMATTR InstName A2
SYMBOL LED 2208 80 R0
SYMATTR InstName D1
TEXT -40 296 Left 2 !.tran 100m
TEXT 360 400 Left 2 !.inc CD4000.lib
TEXT 456 680 Left 3 ;Student 1 = Ayush Madan                    Roll No. = 2020187
TEXT 456 712 Left 3 ;Student 2 = Bineet Bhowmick             Roll No. = 2020189
TEXT 528 624 Left 5 ;CLAP CONTROLLED SWITCH
